test/data/matpower/case5_ACDC_SPM_95cc_RES.m
%% MATPOWER Case Format : Version 2
function mpc = case5_acdc()
mpc.version = '2';

%% stochastic data
%column_names%  dst         pa      pb
mpc.sdata = [
                'Normal'    0.0     0.0;				
                'Normal'	0.0		0.0;
                'Beta'		0.4134	1.7147;
];

%% RES data
%column_names%  RES_bus dst_id 
mpc.RES = [ 2 3;
				3 3;
				4 3;
				5 3;
];

%%-----  Power Flow Data  -----%%
%% system MVA base
mpc.baseMVA = 100;
%% bus data
%    bus_i    type    Pd    Qd    Gs    Bs    area    Vm    Va    baseKV    zone    Vmax    Vmin
mpc.bus = [
	1	3	0.0	0.0	0.0	0.0	1	1.0	0.0	345.0	1	1.1	0.9				
	2	2	60.0	10.0	0.0	0.0	1	1.0	0.0	345.0	1	1.1	0.9				
	3	1	45.0	15.0	0.0	0.0	1	1.0	0.0	345.0	1	1.1	0.9				
	4	1	40.0	5.0	0.0	0.0	1	1.0	0.0	345.0	1	1.1	0.9				
	5	1	60.0	10.0	0.0	0.0	1	1.0	0.0	345.0	1	1.1	0.9				
];

%% generator data
%    bus    Pg    Qg    Qmax    Qmin    Vg    mBase    status    Pmax    Pmin    Pc1    Pc2    Qc1min    Qc1max    Qc2min    Qc2max    ramp_agc    ramp_10    ramp_30    ramp_q    apf
mpc.gen = [
	1	0.0	0.0	500.0	-500.0	1.0	100.0	1	250.0	10.0	0.0	0.0	0.0	0.0	0.0	0.0	0.0	0.0	0.0	0.0	0.0				
	2	40.0	0.0	300.0	-300.0	1.0	100.0	1	300.0	10.0	0.0	0.0	0.0	0.0	0.0	0.0	0.0	0.0	0.0	0.0	0.0				
];

%% branch data
%    f_bus    t_bus    r    x    b    rateA    rateB    rateC    ratio    angle    status    angmin    angmax
mpc.branch = [
	1	2	0.02	0.06	0.06	10.0	10.0	10.0	0	0	1	-59.99999999999999	59.99999999999999								
	1	3	0.08	0.24	0.05	100.0	100.0	100.0	0	0	1	-59.99999999999999	59.99999999999999								
	2	3	0.06	0.18	0.04	100.0	100.0	100.0	0	0	1	-59.99999999999999	59.99999999999999								
	2	4	0.06	0.18	0.04	100.0	100.0	100.0	0	0	1	-59.99999999999999	59.99999999999999								
	2	5	0.04	0.12	0.03	100.0	100.0	100.0	0	0	1	-59.99999999999999	59.99999999999999								
	%3	4	0.01	0.03	0.02	100.0	100.0	100.0	0	0	1	-59.99999999999999	59.99999999999999								
	%4	5	0.08	0.24	0.05	100.0	100.0	100.0	0	0	1	-59.99999999999999	59.99999999999999	
	%1	5	0.08	0.24	0.05	100.0	100.0	100.0	0	0	1	-59.99999999999999	59.99999999999999 %ustekinin 8 kati					
];

%%-----  OPF Data  -----%%
%% cost data
%    1    startup    shutdown    n    x1    y1    ...    xn    yn
%    2    startup    shutdown    n    c(n-1)    ...    c0
mpc.gencost = [
	2	0.0	0.0	2	24.804734	0.0
	2	0.0	0.0	2	34.844643	0.0
	%2	0.0	0.0	2	150	0.0
	%2	0.0	0.0	2	100	0.0
];

%column_names% μ dst_id λvmax σ λvmin 
mpc.bus_data = {
	0.0	0	1.65	0.0	1.65
	60.0	0	1.65	0.0	1.65
	45.0	1	1.65	4.5	1.65
	40.0	2	1.65	6.0	1.65
	60.0	0	1.65	0.0	1.65
};

%column_names% λqmax λpmax λpmin λqmin 
mpc.gen_data = {
	1.65	1.65	1.65	1.65
	1.65	1.65	1.65	1.65
};

%column_names% λcmax c_rating_a 
mpc.branch_data = {
	1.65	10.0
	1.65	100.0
	1.65	100.0
	1.65	100.0
	1.65	100.0
	%1.65	100.0
	%1.65	100.0
	%1.65	100.0
};

mpc.dcpol = 2;

%column_names% dVdcset Vtar Pacmax filter reactor Vdcset Vmmax xtf Imax λvmax status Pdcset islcc LossA Qacmin rc rtf xc busdc_i busac_i tm type_dc Q_g LossB basekVac LossCrec droop Pacmin Qacmax type_ac Vmmin P_g transformer λvmin bf LossCinv 
mpc.convdc = {
	0	1	100	1	1	1.0079	1.1	0.01	1.1	1.65	1	-58.6274	0	1.103	-50	0.01	0.01	0.01	1	2	1	1	-40	0.887	345	2.885	0.005	-100	50	1	0.9	-60	1	1.65	0.01	2.885
	0	1	100	1	1	1.0	1.1	0.01	1.1	1.65	1	21.9013	0	1.103	-50	0.01	0.01	0.01	2	3	1	2	0	0.887	345	2.885	0.007	-100	50	1	0.9	0	1	1.65	0.01	2.885
	0	1	100	1	1	0.9978	1.1	0.01	1.1	1.65	1	36.1856	0	1.103	-50	0.01	0.01	0.01	3	5	1	1	5	0.887	345	2.885	0.005	-100	50	1	0.9	35	1	1.65	0.01	2.885
};

%column_names% c r status λcmax rateB fbusdc rateA l rateC tbusdc 
mpc.branchdc = {
	0	0.052	1	1.65	20	1	20	0	20	2
	0	0.052	1	1.65	10	2	10	0	10	3	
	%0	0.052	1	1.65	100	2	100	0	100	3
	%0	0.416	1	1.65	100	2	100	0	100	3
	%0	0.073	1	1.65	10	1	10	0	10	3
	0	0.073	1	1.65	20	1	20	0	20	3
};

%column_names% Vdc λvmax Cdc basekVdc busdc_i grid λvmin Vdcmax Vdcmin Pdc 
mpc.busdc = {
	1	1.65	0	345	1	1	1.65	1.1	0.9	0
	1	1.65	0	345	2	1	1.65	1.1	0.9	0
	1	1.65	0	345	3	1	1.65	1.1	0.9	0
};


